model BasicBuilder -ndm 3 -ndf 3
node	15670	34873.0594	1572.9495	62328.5927
node	15671	34873.0594	1572.9495	62328.5927
node	15672	35117.2541	1572.9495	62454.0746
node	15673	35117.2541	1572.9495	62454.0746
node	15674	35287.1788	1564.677	62124.8486
node	15675	35287.1788	1564.677	62124.8486
node	15676	34873.0594	1698.9339	62328.5927
node	15677	34873.0594	1698.9339	62328.5927
node	15678	35117.2541	1698.9339	62454.0746
node	15679	35117.2541	1698.9339	62454.0746
node	15680	35287.1788	1690.6613	62124.8486
node	15681	35287.1788	1690.6613	62124.8486
node	15682	34873.0594	1824.9182	62328.5927
node	15683	34873.0594	1824.9182	62328.5927
node	15684	35117.2541	1824.9182	62454.0746
node	15685	35117.2541	1824.9182	62454.0746
node	15686	35287.1788	1816.6456	62124.8486
node	15687	35287.1788	1816.6456	62124.8486
node	15688	34873.0594	1950.9025	62328.5927
node	15689	34873.0594	1950.9025	62328.5927
# ... 116 like lines cut
model BasicBuilder -ndm 3 -ndf 6
equalDOF	8116	15670 1 2 3
equalDOF	14122	15671 1 2 3
equalDOF	8117	15672 1 2 3
equalDOF	14123	15673 1 2 3
equalDOF	8119	15674 1 2 3
equalDOF	8172	15675 1 2 3
equalDOF	8126	15676 1 2 3
equalDOF	14126	15677 1 2 3
equalDOF	8127	15678 1 2 3
equalDOF	14127	15679 1 2 3
equalDOF	8129	15680 1 2 3
equalDOF	8185	15681 1 2 3
equalDOF	8136	15682 1 2 3
equalDOF	14130	15683 1 2 3
equalDOF	8137	15684 1 2 3
equalDOF	14131	15685 1 2 3
equalDOF	8139	15686 1 2 3
equalDOF	8198	15687 1 2 3
equalDOF	8146	15688 1 2 3
equalDOF	14134	15689 1 2 3
# ... 116 like lines cut




















# ... 49 like lines cut
uniaxialMaterial Elastic 6 1.0e15
uniaxialMaterial Elastic 7 1.0e15
element zeroLength	25961	15670	15671 -mat 6 7 6 -dir 1 2 3
element zeroLength	25965	15672	15673 -mat 6 7 6 -dir 1 2 3
element zeroLength	25969	15674	15675 -mat 6 7 6 -dir 1 2 3
element zeroLength	25973	15676	15677 -mat 6 7 6 -dir 1 2 3
element zeroLength	25977	15678	15679 -mat 6 7 6 -dir 1 2 3
element zeroLength	25981	15680	15681 -mat 6 7 6 -dir 1 2 3
element zeroLength	25985	15682	15683 -mat 6 7 6 -dir 1 2 3
element zeroLength	25989	15684	15685 -mat 6 7 6 -dir 1 2 3
element zeroLength	25993	15686	15687 -mat 6 7 6 -dir 1 2 3
element zeroLength	25997	15688	15689 -mat 6 7 6 -dir 1 2 3
element zeroLength	26001	15690	15691 -mat 6 7 6 -dir 1 2 3
element zeroLength	26005	15692	15693 -mat 6 7 6 -dir 1 2 3
element zeroLength	26009	15694	15695 -mat 6 7 6 -dir 1 2 3
element zeroLength	26013	15696	15697 -mat 6 7 6 -dir 1 2 3
element zeroLength	26017	15698	15699 -mat 6 7 6 -dir 1 2 3
element zeroLength	26021	15700	15701 -mat 6 7 6 -dir 1 2 3
element zeroLength	26025	15702	15703 -mat 6 7 6 -dir 1 2 3
element zeroLength	26029	15704	15705 -mat 6 7 6 -dir 1 2 3
element zeroLength	26033	15706	15707 -mat 6 7 6 -dir 1 2 3
element zeroLength	26037	15708	15709 -mat 6 7 6 -dir 1 2 3
# ... 48 like lines cut
