model BasicBuilder -ndm 3 -ndf 3
node	9892	38769.1894	1622.0481	66234.7089
node	9893	38769.1894	1622.0481	66234.7089
node	9894	38246.9816	1622.0481	65874.0031
node	9895	38246.9816	1622.0481	65874.0031
node	9896	38769.1894	1748.0324	66234.7089
node	9897	38769.1894	1748.0324	66234.7089
node	9898	38246.9816	1748.0324	65874.0031
node	9899	38246.9816	1748.0324	65874.0031
node	9900	38769.1894	1874.0168	66234.7089
node	9901	38769.1894	1874.0168	66234.7089
node	9902	38246.9816	1874.0168	65874.0031
node	9903	38246.9816	1874.0168	65874.0031
node	9904	38769.1894	2000.0011	66234.7089
node	9905	38769.1894	2000.0011	66234.7089
node	9906	38246.9816	2000.0011	65874.0031
node	9907	38246.9816	2000.0011	65874.0031
node	9908	38769.1894	2125.9854	66234.7089
node	9909	38769.1894	2125.9854	66234.7089
node	9910	38246.9816	2125.9854	65874.0031
node	9911	38246.9816	2125.9854	65874.0031
# ... 20 like lines cut
model BasicBuilder -ndm 3 -ndf 6
equalDOF	4969	9892 1 2 3
equalDOF	5007	9893 1 2 3
equalDOF	4971	9894 1 2 3
equalDOF	5002	9895 1 2 3
equalDOF	4975	9896 1 2 3
equalDOF	5014	9897 1 2 3
equalDOF	4977	9898 1 2 3
equalDOF	5009	9899 1 2 3
equalDOF	4981	9900 1 2 3
equalDOF	5021	9901 1 2 3
equalDOF	4983	9902 1 2 3
equalDOF	5016	9903 1 2 3
equalDOF	4987	9904 1 2 3
equalDOF	5028	9905 1 2 3
equalDOF	4989	9906 1 2 3
equalDOF	5023	9907 1 2 3
equalDOF	4993	9908 1 2 3
equalDOF	5035	9909 1 2 3
equalDOF	4995	9910 1 2 3
equalDOF	5030	9911 1 2 3
# ... 20 like lines cut





















uniaxialMaterial Elastic 6 1.0e15
uniaxialMaterial Elastic 7 1.0e15
element zeroLength	8632	9892	9893 -mat 6 7 6 -dir 1 2 3
element zeroLength	8636	9894	9895 -mat 6 7 6 -dir 1 2 3
element zeroLength	8640	9896	9897 -mat 6 7 6 -dir 1 2 3
element zeroLength	8644	9898	9899 -mat 6 7 6 -dir 1 2 3
element zeroLength	8648	9900	9901 -mat 6 7 6 -dir 1 2 3
element zeroLength	8652	9902	9903 -mat 6 7 6 -dir 1 2 3
element zeroLength	8656	9904	9905 -mat 6 7 6 -dir 1 2 3
element zeroLength	8660	9906	9907 -mat 6 7 6 -dir 1 2 3
element zeroLength	8664	9908	9909 -mat 6 7 6 -dir 1 2 3
element zeroLength	8668	9910	9911 -mat 6 7 6 -dir 1 2 3
element zeroLength	8672	9912	9913 -mat 6 7 6 -dir 1 2 3
element zeroLength	8676	9914	9915 -mat 6 7 6 -dir 1 2 3
element zeroLength	8680	9916	9917 -mat 6 7 6 -dir 1 2 3
element zeroLength	8684	9918	9919 -mat 6 7 6 -dir 1 2 3
element zeroLength	8688	9920	9921 -mat 6 7 6 -dir 1 2 3
element zeroLength	8692	9922	9923 -mat 6 7 6 -dir 1 2 3
element zeroLength	8696	9924	9925 -mat 6 7 6 -dir 1 2 3
element zeroLength	8700	9926	9927 -mat 6 7 6 -dir 1 2 3
element zeroLength	8704	9928	9929 -mat 6 7 6 -dir 1 2 3
element zeroLength	8708	9930	9931 -mat 6 7 6 -dir 1 2 3
