model BasicBuilder -ndm 3 -ndf 3
node	20110131	288.0	168.0	0.0
node	20111231	288.0	168.0	288.0
node	30110131	288.0	336.0	0.0
node	30111222	288.0	336.0	288.0
node	20210131	288.0	168.0	0.0
node	20211231	288.0	168.0	288.0
node	30210131	288.0	336.0	0.0
node	30211222	288.0	336.0	288.0
node	20110231	288.0	168.0	288.0
node	20110222	576.0	168.0	288.0
node	30110222	288.0	336.0	288.0
node	30110231	576.0	336.0	288.0
node	23110231	288.0	168.0	288.0
node	23110222	576.0	168.0	288.0
node	33110222	288.0	336.0	288.0
node	33110231	576.0	336.0	288.0
model BasicBuilder -ndm 3 -ndf 6
equalDOF	20000102	20110131 1 2 3
equalDOF	20000202	20111231 1 2 3
equalDOF	30000102	30110131 1 2 3
equalDOF	30000202	30111222 1 2 3
equalDOF	20000221	20210131 1 2 3
equalDOF	20000222	20211231 1 2 3
equalDOF	30000221	30210131 1 2 3
equalDOF	30000222	30211222 1 2 3
equalDOF	20000131	20110231 1 2 3
equalDOF	20000132	20110222 1 2 3
equalDOF	30000131	30110222 1 2 3
equalDOF	30000132	30110231 1 2 3
equalDOF	20000221	23110231 1 2 3
equalDOF	20000222	23110222 1 2 3
equalDOF	30000221	33110222 1 2 3
equalDOF	30000222	33110231 1 2 3
element zeroLengthImpact3D	39898	20110131	20210131	1	0.01	0.3	1.6e12	1.6e12	160000000000.0	0.1	0
element zeroLengthImpact3D	49898	20111231	20211231	1	0.01	0.3	1.6e12	1.6e12	160000000000.0	0.1	0
element zeroLengthImpact3D	59898	30110131	30210131	1	0.01	0.3	1.6e12	1.6e12	160000000000.0	0.1	0
element zeroLengthImpact3D	69898	30111222	30211222	1	0.01	0.3	1.6e12	1.6e12	160000000000.0	0.1	0
element zeroLengthImpact3D	39811	20110231	23110231	1	0.01	0.3	1.6e12	1.6e12	160000000000.0	0.1	0
element zeroLengthImpact3D	49811	20110222	23110222	1	0.01	0.3	1.6e12	1.6e12	160000000000.0	0.1	0
element zeroLengthImpact3D	59811	30110222	33110222	1	0.01	0.3	1.6e12	1.6e12	160000000000.0	0.1	0
element zeroLengthImpact3D	69811	30110231	33110231	1	0.01	0.3	1.6e12	1.6e12	160000000000.0	0.1	0

uniaxialMaterial Elastic 6 1.0e2
uniaxialMaterial Elastic 7 1.0e3
element zeroLength	32298	20110131	20210131 -mat 6 7 6 -dir 1 2 3
element zeroLength	42298	20111231	20211231 -mat 6 7 6 -dir 1 2 3
element zeroLength	52298	30110131	30210131 -mat 6 7 6 -dir 1 2 3
element zeroLength	62298	30111222	30211222 -mat 6 7 6 -dir 1 2 3
element zeroLength	32211	20110231	23110231 -mat 6 7 6 -dir 1 2 3
element zeroLength	42211	20110222	23110222 -mat 6 7 6 -dir 1 2 3
element zeroLength	52211	30110222	33110222 -mat 6 7 6 -dir 1 2 3
element zeroLength	62211	30110231	33110231 -mat 6 7 6 -dir 1 2 3
