model BasicBuilder -ndm 3 -ndf 3
node	10639	38931.8624	1602.0799	61270.5222
node	10640	38931.8624	1602.0799	61270.5222
node	10641	39713.1434	1602.0799	61577.0129
node	10642	39713.1434	1602.0799	61577.0129
node	10643	38931.8624	1728.0642	61270.5222
node	10644	38931.8624	1728.0642	61270.5222
node	10645	39713.1434	1728.0642	61577.0129
node	10646	39713.1434	1728.0642	61577.0129
node	10647	38931.8624	1854.0485	61270.5222
node	10648	38931.8624	1854.0485	61270.5222
node	10649	39713.1434	1854.0485	61577.0129
node	10650	39713.1434	1854.0485	61577.0129
node	10651	38931.8624	1980.0328	61270.5222
node	10652	38931.8624	1980.0328	61270.5222
node	10653	39713.1434	1980.0328	61577.0129
node	10654	39713.1434	1980.0328	61577.0129
node	10655	40290.342	1599.3083	64306.5724
node	10656	40290.342	1599.3083	64306.5724
node	10657	40858.9106	1591.222	64501.1349
node	10658	40858.9106	1591.222	64501.1349
# ... 258 like lines cut
model BasicBuilder -ndm 3 -ndf 6
equalDOF	2436	10639 1 2 3
equalDOF	9304	10640 1 2 3
equalDOF	2440	10641 1 2 3
equalDOF	9299	10642 1 2 3
equalDOF	2442	10643 1 2 3
equalDOF	9311	10644 1 2 3
equalDOF	2446	10645 1 2 3
equalDOF	9306	10646 1 2 3
equalDOF	2448	10647 1 2 3
equalDOF	9318	10648 1 2 3
equalDOF	2452	10649 1 2 3
equalDOF	9313	10650 1 2 3
equalDOF	2454	10651 1 2 3
equalDOF	9325	10652 1 2 3
equalDOF	2458	10653 1 2 3
equalDOF	9320	10654 1 2 3
equalDOF	7571	10655 1 2 3
equalDOF	7631	10656 1 2 3
equalDOF	7633	10657 1 2 3
equalDOF	7673	10658 1 2 3
# ... 258 like lines cut




















# ... 120 like lines cut
uniaxialMaterial Elastic 6 1.0e15
uniaxialMaterial Elastic 7 1.0e15
element zeroLength	17142	10639	10640 -mat 6 7 6 -dir 1 2 3
element zeroLength	17146	10641	10642 -mat 6 7 6 -dir 1 2 3
element zeroLength	17150	10643	10644 -mat 6 7 6 -dir 1 2 3
element zeroLength	17154	10645	10646 -mat 6 7 6 -dir 1 2 3
element zeroLength	17158	10647	10648 -mat 6 7 6 -dir 1 2 3
element zeroLength	17162	10649	10650 -mat 6 7 6 -dir 1 2 3
element zeroLength	17166	10651	10652 -mat 6 7 6 -dir 1 2 3
element zeroLength	17170	10653	10654 -mat 6 7 6 -dir 1 2 3
element zeroLength	17174	10655	10656 -mat 6 7 6 -dir 1 2 3
element zeroLength	17178	10657	10658 -mat 6 7 6 -dir 1 2 3
element zeroLength	17182	10659	10660 -mat 6 7 6 -dir 1 2 3
element zeroLength	17186	10661	10662 -mat 6 7 6 -dir 1 2 3
element zeroLength	17190	10663	10664 -mat 6 7 6 -dir 1 2 3
element zeroLength	17194	10665	10666 -mat 6 7 6 -dir 1 2 3
element zeroLength	17198	10667	10668 -mat 6 7 6 -dir 1 2 3
element zeroLength	17202	10669	10670 -mat 6 7 6 -dir 1 2 3
element zeroLength	17206	10671	10672 -mat 6 7 6 -dir 1 2 3
element zeroLength	17210	10673	10674 -mat 6 7 6 -dir 1 2 3
element zeroLength	17214	10675	10676 -mat 6 7 6 -dir 1 2 3
element zeroLength	17218	10677	10678 -mat 6 7 6 -dir 1 2 3
# ... 119 like lines cut
